SOL 101
CEND
TITLE = CQUAD4 STIFFNESS MAT.
ECHO = NONE

SPCFORCES(SORT1,REAL)=ALL
STRAIN(SORT1,REAL,VONMISES,STRCUR,CENTER)=ALL
STRESS(SORT1,REAL,VONMISES,CENTER)=ALL
FORCE(SORT1,REAL,CENTER)=ALL

SUBCASE 11
SUBTITLE=F1X
SPC = 11
LOAD = 11

SUBCASE 12
SUBTITLE=F1Y
SPC = 12
LOAD = 12

SUBCASE 21
SUBTITLE=F2X
SPC = 21
LOAD = 21

SUBCASE 22
SUBTITLE=F2Y
SPC = 22
LOAD = 22

SUBCASE 31
SUBTITLE=F3X
SPC = 31
LOAD = 31

SUBCASE 32
SUBTITLE=F3Y
SPC = 32
LOAD = 32

SUBCASE 41
SUBTITLE=F4X
SPC = 41
LOAD = 41

SUBCASE 42
SUBTITLE=F4Y
SPC = 42
LOAD = 42




BEGIN BULK

$1  1  ..   2  ..  3   ..  4   ..  5   ..   6  ..   7  ..   8  ..  9   .
MAT1    100     1.              .3       

$1  1  ..   2  ..  3   ..  4   ..  5   ..   6  ..   7  ..   8  ..  9   .
PSHELL   1000    100     1.      100             100

$1  1  ..   2  ..  3   ..  4   ..  5   ..   6  ..   7  ..   8  ..  9   .
GRID     101             0.      0.      0.      
GRID     102             1.      0.      0.      
GRID     103             1.      1.      0.      
GRID     104             0.      1.      0.      

$1  1  ..   2  ..  3   ..  4   ..  5   ..   6  ..   7  ..   8  ..  9   .
CQUAD4   1      1000     101     102     103     104   

$ LOADS FOR LOAD CASE : F1X
$1  1  ..   2  ..  3   ..  4   ..  5   ..   6  ..   7  ..   8  ..  9   .
LOAD     11     1.       1.      111
FORCE    111    101              1.      1.      0.      0.
SPCADD   11      110      111
SPC1     110     12345    102    103     104 
SPC1     111     2345     101 

$ LOADS FOR LOAD CASE : F1Y
$1  1  ..   2  ..  3   ..  4   ..  5   ..   6  ..   7  ..   8  ..  9   .
LOAD     12     1.       1.      112
FORCE    112    101              1.      0.      1.      0.
SPCADD   12      120      122
SPC1     120     12345    102    103     104 
SPC1     122     1345     101 

$ LOADS FOR LOAD CASE : F2X
$1  1  ..   2  ..  3   ..  4   ..  5   ..   6  ..   7  ..   8  ..  9   .
LOAD     21     1.       1.      211
FORCE    211    102              1.      1.      0.      0.
SPCADD   21      210      221
SPC1     210     12345    101    103     104 
SPC1     221     2345     102 

$ LOADS FOR LOAD CASE : F2Y
$1  1  ..   2  ..  3   ..  4   ..  5   ..   6  ..   7  ..   8  ..  9   .
LOAD     22     1.       1.      221
FORCE    221    102              1.      0.      1.      0.
SPCADD   22      220      222
SPC1     220     12345    101    103     104 
SPC1     222     1345     102 

$ LOADS FOR LOAD CASE : F3X
$1  1  ..   2  ..  3   ..  4   ..  5   ..   6  ..   7  ..   8  ..  9   .
LOAD     31     1.       1.      311
FORCE    311    103              1.      1.      0.      0.
SPCADD   31      310      321
SPC1     310     12345    101    102     104 
SPC1     321     2345     103 

$ LOADS FOR LOAD CASE : F3Y
$1  1  ..   2  ..  3   ..  4   ..  5   ..   6  ..   7  ..   8  ..  9   .
LOAD     32     1.       1.      321
FORCE    321    103              1.      0.      1.      0.
SPCADD   32      320      322
SPC1     320     12345    101    102     104 
SPC1     322     1345     103

$ LOADS FOR LOAD CASE : F4X
$1  1  ..   2  ..  3   ..  4   ..  5   ..   6  ..   7  ..   8  ..  9   .
LOAD     41     1.       1.      411
FORCE    411    104              1.      1.      0.      0.
SPCADD   41      410      421
SPC1     410     12345    101    102     103 
SPC1     421     2345     104 

$ LOADS FOR LOAD CASE : F4Y
$1  1  ..   2  ..  3   ..  4   ..  5   ..   6  ..   7  ..   8  ..  9   .
LOAD     42     1.       1.      421
FORCE    421    104              1.      0.      1.      0.
SPCADD   42      420      422
SPC1     420     12345    101    102     103 
SPC1     422     1345     104






ENDDATA